# generated using pymatgen
data_Si
_symmetry_space_group_name_H-M   'P 1'
_cell_length_a   3.86697465
_cell_length_b   3.86697465
_cell_length_c   21.87491200
_cell_angle_alpha   90.00000000
_cell_angle_beta   90.00000000
_cell_angle_gamma   90.00000000
_symmetry_Int_Tables_number   1
_chemical_formula_structural   Si
_chemical_formula_sum   Si8
_cell_volume   327.10634279
_cell_formula_units_Z   8
loop_
 _symmetry_equiv_pos_site_id
 _symmetry_equiv_pos_as_xyz
  1  'x, y, z'
loop_
 _atom_site_type_symbol
 _atom_site_label
 _atom_site_symmetry_multiplicity
 _atom_site_fract_x
 _atom_site_fract_y
 _atom_site_fract_z
 _atom_site_occupancy
  Si  Si1  1  0.000000  0.000000  0.999183  1
  Si  Si2  1  0.000000  0.500000  0.812650  1
  Si  Si3  1  0.500000  0.500000  0.874754  1
  Si  Si4  1  0.500000  0.000000  0.937279  1
  Si  Si5  1  0.000000  0.000000  0.749850  1
  Si  Si6  1  0.000000  0.500000  0.563317  1
  Si  Si7  1  0.500000  0.500000  0.625221  1
  Si  Si8  1  0.500000  0.000000  0.687746  1
